networks/opendss/CKT_656_14750.dss
! OpenDSS script generated from multiconductor network
Clear

New Circuit.mc_network basekv=12.0 pu=1.000000 angle=0.00 frequency=60.0 phases=3 Mvasc3=143993 Mvasc1=47997.6
~ bus1=-8888882180272.1.2.3

! Line codes
New LineCode.1000_JCN_3PH_12KV_3 nphases=3 units=km Rmatrix=[ 0.058318 | 0 0.058318 | 0 0 0.058318 ] Xmatrix=[ 0.088275 | 0 0.088275 | 0 0 0.088275 ] Cmatrix=[ 0 | 0 0 | 0 0 0 ]
New LineCode.1/0_JCN_3PH_12KV_3 nphases=3 units=km Rmatrix=[ 0.00355 | 0 0.00355 | 0 0 0.00355 ] Xmatrix=[ 0.001085 | 0 0.001085 | 0 0 0.001085 ] Cmatrix=[ 0 | 0 0 | 0 0 0 ]
New LineCode.1/0_CLP_1PH_12KV_1 nphases=1 units=km Rmatrix=[ 0.001063 ] Xmatrix=[ 0.000325 ] Cmatrix=[ 0 ]
New LineCode.2_CLP_2PH_12KV_2 nphases=2 units=km Rmatrix=[ 0.086 | 0 0.086 ] Xmatrix=[ 0.018127 | 0 0.018127 ] Cmatrix=[ 0 | 0 0 ]
New LineCode.1/0_JCN_2PH_12KV_2 nphases=2 units=km Rmatrix=[ 0.05574 | 0 0.05574 ] Xmatrix=[ 0.017037 | 0 0.017037 ] Cmatrix=[ 0 | 0 0 ]
New LineCode.__2PH_12KV_2 nphases=2 units=km Rmatrix=[ 1e-05 | 0 1e-05 ] Xmatrix=[ 1e-05 | 0 1e-05 ] Cmatrix=[ 0 | 0 0 ]
New LineCode.350_AL_3PH_12KV_3 nphases=3 units=km Rmatrix=[ 0.029485 | 0 0.029485 | 0 0 0.029485 ] Xmatrix=[ 0.022403 | 0 0.022403 | 0 0 0.022403 ] Cmatrix=[ 0 | 0 0 | 0 0 0 ]
New LineCode.336_ACSR_3PH_12KV_3 nphases=3 units=km Rmatrix=[ 0.016792 | 0 0.016792 | 0 0 0.016792 ] Xmatrix=[ 0.037603 | 0 0.037603 | 0 0 0.037603 ] Cmatrix=[ 0 | 0 0 | 0 0 0 ]
New LineCode.4_ACSR_3PH_12KV_3 nphases=3 units=km Rmatrix=[ 0.037679 | 0 0.037679 | 0 0 0.037679 ] Xmatrix=[ 0.013826 | 0 0.013826 | 0 0 0.013826 ] Cmatrix=[ 0 | 0 0 | 0 0 0 ]
New LineCode.6_CU_3PH_12KV_3 nphases=3 units=km Rmatrix=[ 0.003209 | 0 0.003209 | 0 0 0.003209 ] Xmatrix=[ 0.001138 | 0 0.001138 | 0 0 0.001138 ] Cmatrix=[ 0 | 0 0 | 0 0 0 ]
New LineCode.1/0_ACSR_3PH_12KV_3 nphases=3 units=km Rmatrix=[ 0.028355 | 0 0.028355 | 0 0 0.028355 ] Xmatrix=[ 0.022576 | 0 0.022576 | 0 0 0.022576 ] Cmatrix=[ 0 | 0 0 | 0 0 0 ]
New LineCode.4_CU_3PH_12KV_3 nphases=3 units=km Rmatrix=[ 0.017953 | 0 0.017953 | 0 0 0.017953 ] Xmatrix=[ 0.009785 | 0 0.009785 | 0 0 0.009785 ] Cmatrix=[ 0 | 0 0 | 0 0 0 ]
New LineCode.6_CU_2PH_12KV_2 nphases=2 units=km Rmatrix=[ 0.182992 | 0 0.182992 ] Xmatrix=[ 0.064863 | 0 0.064863 ] Cmatrix=[ 0 | 0 0 ]
New LineCode.350_JCN_3PH_12KV_3 nphases=3 units=km Rmatrix=[ 0.024222 | 0 0.024222 | 0 0 0.024222 ] Xmatrix=[ 0.018404 | 0 0.018404 | 0 0 0.018404 ] Cmatrix=[ 0 | 0 0 | 0 0 0 ]
New LineCode.4_ACSR_2PH_12KV_2 nphases=2 units=km Rmatrix=[ 0.330211 | 0 0.330211 ] Xmatrix=[ 0.121168 | 0 0.121168 ] Cmatrix=[ 0 | 0 0 ]
New LineCode.350_CLP_3PH_12KV_3 nphases=3 units=km Rmatrix=[ 0.008459 | 0 0.008459 | 0 0 0.008459 ] Xmatrix=[ 0.006427 | 0 0.006427 | 0 0 0.006427 ] Cmatrix=[ 0 | 0 0 | 0 0 0 ]
New LineCode.2_CLP_3PH_12KV_3 nphases=3 units=km Rmatrix=[ 0.123172 | 0 0.123172 | 0 0 0.123172 ] Xmatrix=[ 0.025962 | 0 0.025962 | 0 0 0.025962 ] Cmatrix=[ 0 | 0 0 | 0 0 0 ]
New LineCode.1/0_CLP_3PH_12KV_3 nphases=3 units=km Rmatrix=[ 0.073346 | 0 0.073346 | 0 0 0.073346 ] Xmatrix=[ 0.022418 | 0 0.022418 | 0 0 0.022418 ] Cmatrix=[ 0 | 0 0 | 0 0 0 ]
New LineCode.2_AL_2PH_12KV_2 nphases=2 units=km Rmatrix=[ 0.110888 | 0 0.110888 ] Xmatrix=[ 0.023373 | 0 0.023373 ] Cmatrix=[ 0 | 0 0 ]
New LineCode.2_ACSR_3PH_12KV_3 nphases=3 units=km Rmatrix=[ 0.059593 | 0 0.059593 | 0 0 0.059593 ] Xmatrix=[ 0.032038 | 0 0.032038 | 0 0 0.032038 ] Cmatrix=[ 0 | 0 0 | 0 0 0 ]
New LineCode.4_CU_2PH_12KV_2 nphases=2 units=km Rmatrix=[ 0.003782 | 0 0.003782 ] Xmatrix=[ 0.002061 | 0 0.002061 ] Cmatrix=[ 0 | 0 0 ]
New LineCode.1/0_ACSR_3PH_1/0_ACSR_N_12KV_4 nphases=4 units=km Rmatrix=[ 0.007979 | 0 0.007979 | 0 0 0.007979 | 0 0 0 0.007979 ] Xmatrix=[ 0.005766 | 0 0.005766 | 0 0 0.005766 | 0 0 0 0.005766 ] Cmatrix=[ 0 | 0 0 | 0 0 0 | 0 0 0 0 ]
New LineCode.2_AL_3PH_12KV_3 nphases=3 units=km Rmatrix=[ 0.082785 | 0 0.082785 | 0 0 0.082785 ] Xmatrix=[ 0.017449 | 0 0.017449 | 0 0 0.017449 ] Cmatrix=[ 0 | 0 0 | 0 0 0 ]
New LineCode.2_JCN_2PH_12KV_2 nphases=2 units=km Rmatrix=[ 0.238915 | 0 0.238915 ] Xmatrix=[ 0.050359 | 0 0.050359 ] Cmatrix=[ 0 | 0 0 ]
New LineCode.1/0_AL_3PH_12KV_3 nphases=3 units=km Rmatrix=[ 0.001777 | 0 0.001777 | 0 0 0.001777 ] Xmatrix=[ 0.000543 | 0 0.000543 | 0 0 0.000543 ] Cmatrix=[ 0 | 0 0 | 0 0 0 ]
New LineCode.1/0_AL_1PH_12KV_1 nphases=1 units=km Rmatrix=[ 0.105406 ] Xmatrix=[ 0.032217 ] Cmatrix=[ 0 ]
New LineCode.2_JCN_3PH_12KV_3 nphases=3 units=km Rmatrix=[ 0.006332 | 0 0.006332 | 0 0 0.006332 ] Xmatrix=[ 0.001335 | 0 0.001335 | 0 0 0.001335 ] Cmatrix=[ 0 | 0 0 | 0 0 0 ]
New LineCode.1/0_ACSR_2PH_12KV_2 nphases=2 units=km Rmatrix=[ 0.028791 | 0 0.028791 ] Xmatrix=[ 0.022923 | 0 0.022923 ] Cmatrix=[ 0 | 0 0 ]
New LineCode.4_ACSR_3PH_4_ACSR_N_12KV_4 nphases=4 units=km Rmatrix=[ 0.007045 | 0 0.007045 | 0 0 0.007045 | 0 0 0 0.007045 ] Xmatrix=[ 0.00237 | 0 0.00237 | 0 0 0.00237 | 0 0 0 0.00237 ] Cmatrix=[ 0 | 0 0 | 0 0 0 | 0 0 0 0 ]
New LineCode.2_CU_3PH_12KV_3 nphases=3 units=km Rmatrix=[ 0.090962 | 0 0.090962 | 0 0 0.090962 ] Xmatrix=[ 0.073973 | 0 0.073973 | 0 0 0.073973 ] Cmatrix=[ 0 | 0 0 | 0 0 0 ]
New LineCode.2_CU_2PH_12KV_2 nphases=2 units=km Rmatrix=[ 1e-05 | 0 1e-05 ] Xmatrix=[ 1e-05 | 0 1e-05 ] Cmatrix=[ 0 | 0 0 ]
New LineCode.1/0_ATW_3PH_12KV_3 nphases=3 units=km Rmatrix=[ 1e-05 | 0 1e-05 | 0 0 1e-05 ] Xmatrix=[ 1e-05 | 0 1e-05 | 0 0 1e-05 ] Cmatrix=[ 0 | 0 0 | 0 0 0 ]
New LineCode.1/0_ATW_2PH_12KV_2 nphases=2 units=km Rmatrix=[ 1e-05 | 0 1e-05 ] Xmatrix=[ 1e-05 | 0 1e-05 ] Cmatrix=[ 0 | 0 0 ]

! Lines
New Line.4934364E$ND238433883 phases=3 Bus1=218757119.1.2.3 Bus2=238433883.1.2.3 LineCode=1000_JCN_3PH_12KV_3 Length=0.087086 units=km
New Line.ND238433883$PH5818 phases=3 Bus1=238433883.1.2.3 Bus2=238433789.1.2.3 LineCode=1000_JCN_3PH_12KV_3 Length=2.95085 units=km
New Line.ND238433883$GS4302-2 phases=3 Bus1=238433883.1.2.3 Bus2=238646172.1.2.3 LineCode=1000_JCN_3PH_12KV_3 Length=0.040652 units=km
New Line.236039524$ND236038914 phases=3 Bus1=236039527.1.2.3 Bus2=236038914.1.2.3 LineCode=1/0_JCN_3PH_12KV_3 Length=0.014134 units=km
New Line.276289513$P5779040-A phases=1 Bus1=276289516.3 Bus2=276289433.3 LineCode=1/0_CLP_1PH_12KV_1 Length=0.001502 units=km
New Line.214689335$107994960 phases=2 Bus1=214689337.1.3 Bus2=107994962.1.3 LineCode=2_CLP_2PH_12KV_2 Length=0.072184 units=km
New Line.ND236038914$ND236038901 phases=3 Bus1=236038914.1.2.3 Bus2=236038901.1.2.3 LineCode=1/0_JCN_3PH_12KV_3 Length=0.005264 units=km
New Line.ND236038914$236039553 phases=3 Bus1=236038914.1.2.3 Bus2=236039556.1.2.3 LineCode=1/0_JCN_3PH_12KV_3 Length=0.009088 units=km
New Line.B5059557-1$B5017428-2 phases=2 Bus1=20336769.1.3 Bus2=20336832.1.3 LineCode=2_CLP_2PH_12KV_2 Length=0.198035 units=km
New Line.B5017252-2$ND20465974 phases=2 Bus1=20337057.1.3 Bus2=20465974.1.3 LineCode=2_CLP_2PH_12KV_2 Length=0.015777 units=km
New Line.ND236038901$236039579 phases=2 Bus1=236038901.1.2 Bus2=236039582.1.2 LineCode=1/0_JCN_2PH_12KV_2 Length=0.009023 units=km
New Line.107994960$P5602910-2 phases=2 Bus1=107994963.1.3 Bus2=107994349.1.3 LineCode=2_CLP_2PH_12KV_2 Length=0.002498 units=km
New Line.B5016659-1$ND20465974 phases=2 Bus1=20465974.1.3 Bus2=20336904.1.3 LineCode=2_CLP_2PH_12KV_2 Length=0.078648 units=km
New Line.B5016660-2$ND20465974 phases=2 Bus1=20465974.1.3 Bus2=20336985.1.3 LineCode=2_CLP_2PH_12KV_2 Length=0.083594 units=km
New Line.236039553$236039656 phases=3 Bus1=236039555.1.2.3 Bus2=236039658.1.2.3 LineCode=1/0_JCN_3PH_12KV_3 Length=0.114203 units=km
New Line.236039579$236039604 phases=2 Bus1=236039581.1.2 Bus2=236039606.1.2 LineCode=1/0_JCN_2PH_12KV_2 Length=0.037366 units=km
New Line.B5059557-2$B5059558-1 phases=2 Bus1=20336841.1.3 Bus2=20336688.1.3 LineCode=2_CLP_2PH_12KV_2 Length=0.056388 units=km
New Line.236039656$PME6290-1 phases=3 Bus1=236039659.1.2.3 Bus2=236039038.1.2.3 LineCode=1/0_JCN_3PH_12KV_3 Length=0.001911 units=km
New Line.107994990$P5602910-1 phases=2 Bus1=107994340.1.3 Bus2=107994993.1.3 LineCode=2_CLP_2PH_12KV_2 Length=0.003202 units=km
New Line.236039604$PME6289-1 phases=2 Bus1=236039607.1.2 Bus2=236038954.1.2 LineCode=1/0_JCN_2PH_12KV_2 Length=0.000803 units=km
New Line.P5016661-2$FD11094 phases=2 Bus1=20365037.1.2 Bus2=20323308.1.2 LineCode=1/0_JCN_2PH_12KV_2 Length=0.048395 units=km
New Line.ND107994470$107994990 phases=2 Bus1=107994992.1.3 Bus2=107994470.1.3 LineCode=2_CLP_2PH_12KV_2 Length=0.108311 units=km
New Line.PH022E$P5776508-1 phases=3 Bus1=242938011.1.2.3 Bus2=242938058.1.2.3 LineCode=1/0_JCN_3PH_12KV_3 Length=0.058769 units=km
New Line.4447948E$P5705555-1 phases=3 Bus1=193140462.1.2.3 Bus2=193140510.1.2.3 LineCode=1/0_JCN_3PH_12KV_3 Length=0.168609 units=km
New Line.ND107994470$ND107994452 phases=2 Bus1=107994470.1.3 Bus2=107994452.1.3 LineCode=2_CLP_2PH_12KV_2 Length=0.004626 units=km
New Line.ND107994470$107994910 phases=2 Bus1=107994470.1.3 Bus2=107994912.1.3 LineCode=2_CLP_2PH_12KV_2 Length=0.066563 units=km
New Line.ND107994470$107994935 phases=2 Bus1=107994470.1.3 Bus2=107994937.1.3 LineCode=2_CLP_2PH_12KV_2 Length=0.14682 units=km
New Line.PME6290-2$236039682 phases=2 Bus1=236039029.2.3 Bus2=236039685.2.3 LineCode=__2PH_12KV_2 Length=0.002273 units=km
New Line.ND107994452$107994885 phases=2 Bus1=107994452.1.3 Bus2=107994887.1.3 LineCode=2_CLP_2PH_12KV_2 Length=0.150121 units=km
New Line.PME6289-2$236039631 phases=2 Bus1=236038945.1.2 Bus2=236039634.1.2 LineCode=__2PH_12KV_2 Length=0.002018 units=km
New Line.107994910$P5602912-1 phases=2 Bus1=107994913.1.3 Bus2=107994510.1.3 LineCode=2_CLP_2PH_12KV_2 Length=0.001648 units=km
New Line.107994935$P5602914-1 phases=2 Bus1=107994938.1.3 Bus2=107994752.1.3 LineCode=2_CLP_2PH_12KV_2 Length=0.001531 units=km
New Line.939595E$P5178048-1 phases=3 Bus1=15653406.1.2.3 Bus2=180357819.1.2.3 LineCode=350_AL_3PH_12KV_3 Length=0.132792 units=km
New Line.PS0325$ND218757142 phases=3 Bus1=218757142.1.2.3 Bus2=20412602.1.2.3 LineCode=336_ACSR_3PH_12KV_3 Length=0.042536 units=km
New Line.ND218757142$PS4301 phases=3 Bus1=218757142.1.2.3 Bus2=218757294.1.2.3 LineCode=336_ACSR_3PH_12KV_3 Length=0.003633 units=km
New Line.PS0325$4289785E phases=3 Bus1=20412603.1.2.3 Bus2=20384545.1.2.3 LineCode=336_ACSR_3PH_12KV_3 Length=0.052057 units=km
New Line.PS4301$4934364E phases=3 Bus1=218757293.1.2.3 Bus2=218757118.1.2.3 LineCode=336_ACSR_3PH_12KV_3 Length=0.016642 units=km
New Line.4289785E$1215654E phases=3 Bus1=20384545.1.2.3 Bus2=20384574.1.2.3 LineCode=336_ACSR_3PH_12KV_3 Length=0.094452 units=km
New Line.1215654E$ND173079117 phases=3 Bus1=20384574.1.2.3 Bus2=173079117.1.2.3 LineCode=336_ACSR_3PH_12KV_3 Length=0.03103 units=km
New Line.ND173079117$BF11366 phases=3 Bus1=173079117.1.2.3 Bus2=173079136.1.2.3 LineCode=4_ACSR_3PH_12KV_3 Length=0.004189 units=km
New Line.ND173079117$ND173079177 phases=3 Bus1=173079117.1.2.3 Bus2=173079177.1.2.3 LineCode=336_ACSR_3PH_12KV_3 Length=0.107903 units=km
New Line.ND20465875$ND173079177 phases=3 Bus1=173079177.1.2.3 Bus2=20465875.1.2.3 LineCode=336_ACSR_3PH_12KV_3 Length=0.183704 units=km
New Line.BF11366$ND173079198 phases=3 Bus1=173079137.1.2.3 Bus2=173079198.1.2.3 LineCode=4_ACSR_3PH_12KV_3 Length=0.04157 units=km
New Line.ND20465875$1529663E phases=3 Bus1=20465875.1.2.3 Bus2=20296094.1.2.3 LineCode=336_ACSR_3PH_12KV_3 Length=0.049787 units=km
New Line.ND20465875$4201097E phases=3 Bus1=20465875.1.2.3 Bus2=20384069.1.2.3 LineCode=336_ACSR_3PH_12KV_3 Length=0.130359 units=km
New Line.PS5818$PH5818 phases=3 Bus1=238433783.1.2.3 Bus2=238433758.1.2.3 LineCode=336_ACSR_3PH_12KV_3 Length=0.015385 units=km
New Line.1529663E$4622926E phases=3 Bus1=20296094.1.2.3 Bus2=20296069.1.2.3 LineCode=336_ACSR_3PH_12KV_3 Length=0.026379 units=km
New Line.602877E$4201097E phases=3 Bus1=20384069.1.2.3 Bus2=20296146.1.2.3 LineCode=336_ACSR_3PH_12KV_3 Length=0.037795 units=km
New Line.ND173079198$4368397E phases=3 Bus1=173079198.1.2.3 Bus2=20384601.1.2.3 LineCode=4_ACSR_3PH_12KV_3 Length=0.054994 units=km
New Line.4473510E$ND173079198 phases=3 Bus1=173079198.1.2.3 Bus2=20387836.1.2.3 LineCode=4_ACSR_3PH_12KV_3 Length=0.093509 units=km
New Line.4368397E$4635708E phases=3 Bus1=20384601.1.2.3 Bus2=20295944.1.2.3 LineCode=4_ACSR_3PH_12KV_3 Length=0.02679 units=km
New Line.602877E$ND20437190 phases=3 Bus1=20296146.1.2.3 Bus2=20437190.1.2.3 LineCode=336_ACSR_3PH_12KV_3 Length=0.058096 units=km
New Line.ND238433741$PS5818 phases=3 Bus1=238433757.1.2.3 Bus2=238433741.1.2.3 LineCode=336_ACSR_3PH_12KV_3 Length=0.007549 units=km
New Line.BF12894$2043719E phases=3 Bus1=204468358.1.2.3 Bus2=20323075.1.2.3 LineCode=4_ACSR_3PH_12KV_3 Length=0.090287 units=km
New Line.1012002E$4210432E phases=3 Bus1=20366382.1.2.3 Bus2=20365028.1.2.3 LineCode=6_CU_3PH_12KV_3 Length=0.139221 units=km
New Line.2331540E$BF11129 phases=3 Bus1=135031076.1.2.3 Bus2=20365107.1.2.3 LineCode=6_CU_3PH_12KV_3 Length=0.086609 units=km
New Line.601390E$ND207825420 phases=3 Bus1=20337400.1.2.3 Bus2=207825354.1.2.3 LineCode=1/0_ACSR_3PH_12KV_3 Length=0.091612 units=km
New Line.ND20438621$BF13868 phases=3 Bus1=20438621.1.2.3 Bus2=212876385.1.2.3 LineCode=4_ACSR_3PH_12KV_3 Length=0.219173 units=km
New Line.ND20438621$ND214310435 phases=3 Bus1=20438621.1.2.3 Bus2=214310435.1.2.3 LineCode=336_ACSR_3PH_12KV_3 Length=0.082325 units=km
New Line.ND20437190$BF11367 phases=3 Bus1=20437190.1.2.3 Bus2=173078750.1.2.3 LineCode=4_ACSR_3PH_12KV_3 Length=0.02847 units=km
New Line.4635708E$723201E phases=3 Bus1=20295944.1.2.3 Bus2=20295969.1.2.3 LineCode=4_ACSR_3PH_12KV_3 Length=0.10045 units=km
New Line.ND20465894$ND238433741 phases=3 Bus1=238433741.1.2.3 Bus2=20465894.1.2.3 LineCode=336_ACSR_3PH_12KV_3 Length=0.063799 units=km
New Line.ND20437190$ND20466202 phases=3 Bus1=20437190.1.2.3 Bus2=20466202.1.2.3 LineCode=336_ACSR_3PH_12KV_3 Length=0.17887 units=km
New Line.ND238433741$ND227839697 phases=3 Bus1=238433741.1.2.3 Bus2=227839697.1.2.3 LineCode=336_ACSR_3PH_12KV_3 Length=0.021488 units=km
New Line.ND20466202$ND173079094 phases=3 Bus1=20466202.1.2.3 Bus2=173079094.1.2.3 LineCode=336_ACSR_3PH_12KV_3 Length=0.101557 units=km
New Line.ND20465894$ND174684781 phases=3 Bus1=20465894.1.2.3 Bus2=174684781.1.2.3 LineCode=336_ACSR_3PH_12KV_3 Length=0.099658 units=km
New Line.ND20466202$410643E phases=3 Bus1=20466202.1.2.3 Bus2=20296323.1.2.3 LineCode=6_CU_3PH_12KV_3 Length=0.012108 units=km
New Line.ND20465894$2311695E phases=3 Bus1=20465894.1.2.3 Bus2=20297489.1.2.3 LineCode=4_ACSR_3PH_12KV_3 Length=0.102754 units=km
New Line.723201E$ND20466334 phases=3 Bus1=20295969.1.2.3 Bus2=20466334.1.2.3 LineCode=4_ACSR_3PH_12KV_3 Length=0.01987 units=km
New Line.ND227839697$ND230794793 phases=3 Bus1=227839697.1.2.3 Bus2=230794721.1.2.3 LineCode=336_ACSR_3PH_12KV_3 Length=0.024845 units=km
New Line.ND173078841$ND173079094 phases=3 Bus1=173079094.1.2.3 Bus2=173078841.1.2.3 LineCode=336_ACSR_3PH_12KV_3 Length=0.198887 units=km
New Line.BF11368$ND173079094 phases=3 Bus1=173079094.1.2.3 Bus2=173079002.1.2.3 LineCode=6_CU_3PH_12KV_3 Length=0.008733 units=km
New Line.ND174684860$ND174684781 phases=3 Bus1=174684781.1.2.3 Bus2=174684860.1.2.3 LineCode=336_ACSR_3PH_12KV_3 Length=0.096098 units=km
New Line.ND20466334$4251710E phases=3 Bus1=20466334.1.2.3 Bus2=20295994.1.2.3 LineCode=4_ACSR_3PH_12KV_3 Length=0.173245 units=km
New Line.BF11367$1873147E phases=3 Bus1=173078751.1.2.3 Bus2=20296173.1.2.3 LineCode=4_ACSR_3PH_12KV_3 Length=0.028983 units=km
New Line.410643E$410645E phases=3 Bus1=20296323.1.2.3 Bus2=20296298.1.2.3 LineCode=6_CU_3PH_12KV_3 Length=0.118478 units=km
New Line.ND20466334$4262573E phases=3 Bus1=20466334.1.2.3 Bus2=20366096.1.2.3 LineCode=4_ACSR_3PH_12KV_3 Length=0.073183 units=km
New Line.ND20466334$ND20465543 phases=3 Bus1=20466334.1.2.3 Bus2=20465543.1.2.3 LineCode=4_ACSR_3PH_12KV_3 Length=0.144858 units=km
New Line.BF11371$ND174684860 phases=3 Bus1=174684860.1.2.3 Bus2=174684807.1.2.3 LineCode=6_CU_3PH_12KV_3 Length=0.022767 units=km
New Line.1260569E$ND174684860 phases=3 Bus1=174684860.1.2.3 Bus2=188927847.1.2.3 LineCode=336_ACSR_3PH_12KV_3 Length=0.059339 units=km
New Line.ND20465543$1181047E phases=3 Bus1=20465543.1.2.3 Bus2=20296019.1.2.3 LineCode=4_ACSR_3PH_12KV_3 Length=0.071948 units=km
New Line.ND20465543$4600145E phases=3 Bus1=20465543.1.2.3 Bus2=20296044.1.2.3 LineCode=4_ACSR_3PH_12KV_3 Length=0.066947 units=km
New Line.2331540E$755484E phases=3 Bus1=20365107.1.2.3 Bus2=20365132.1.2.3 LineCode=6_CU_3PH_12KV_3 Length=0.09062 units=km
New Line.4227052E$ND214310435 phases=3 Bus1=214310435.1.2.3 Bus2=20413617.1.2.3 LineCode=336_ACSR_3PH_12KV_3 Length=0.004333 units=km
New Line.ND20437206$ND214310435 phases=3 Bus1=214310435.1.2.3 Bus2=20437206.1.2.3 LineCode=6_CU_3PH_12KV_3 Length=0.838114 units=km
New Line.4122600E$ND20465865 phases=3 Bus1=242212243.1.2.3 Bus2=20465865.1.2.3 LineCode=336_ACSR_3PH_12KV_3 Length=0.057414 units=km
New Line.BF13868$2111663E phases=3 Bus1=212876386.1.2.3 Bus2=20323154.1.2.3 LineCode=4_ACSR_3PH_12KV_3 Length=0.194396 units=km
New Line.ND20437206$1806636E phases=3 Bus1=20437206.1.2.3 Bus2=20323256.1.2.3 LineCode=6_CU_3PH_12KV_3 Length=0.254675 units=km
New Line.ND20465865$4672601E phases=3 Bus1=20465865.1.2.3 Bus2=20337373.1.2.3 LineCode=4_ACSR_3PH_12KV_3 Length=0.036314 units=km
New Line.755484E$755486E phases=3 Bus1=20365132.1.2.3 Bus2=20337427.1.2.3 LineCode=6_CU_3PH_12KV_3 Length=0.185565 units=km
New Line.ND20437206$BF13871 phases=3 Bus1=20437206.1.2.3 Bus2=212876200.1.2.3 LineCode=6_CU_3PH_12KV_3 Length=0.237575 units=km
New Line.870716E$ND20465865 phases=3 Bus1=20465865.1.2.3 Bus2=251243883.1.2.3 LineCode=4_CU_3PH_12KV_3 Length=0.081641 units=km
New Line.1873147E$1467900E phases=3 Bus1=20296173.1.2.3 Bus2=20296198.1.2.3 LineCode=4_ACSR_3PH_12KV_3 Length=0.157394 units=km
New Line.1181140E$ND173078841 phases=3 Bus1=173078841.1.2.3 Bus2=20296450.1.2.3 LineCode=336_ACSR_3PH_12KV_3 Length=0.014591 units=km
New Line.ND173078861$BF11368 phases=3 Bus1=173079003.1.2.3 Bus2=173078861.1.2.3 LineCode=6_CU_3PH_12KV_3 Length=0.081376 units=km
New Line.1467900E$ND193140485 phases=3 Bus1=20296198.1.2.3 Bus2=193140485.1.2.3 LineCode=4_ACSR_3PH_12KV_3 Length=0.086793 units=km
New Line.4600145E$281544E phases=3 Bus1=20296044.1.2.3 Bus2=20295919.1.2.3 LineCode=4_ACSR_3PH_12KV_3 Length=0.184907 units=km
New Line.PS0009$870716E phases=3 Bus1=251243883.1.2.3 Bus2=15657589.1.2.3 LineCode=4_CU_3PH_12KV_3 Length=0.016429 units=km
New Line.2111663E$2191397E phases=3 Bus1=20323154.1.2.3 Bus2=20323100.1.2.3 LineCode=4_ACSR_3PH_12KV_3 Length=0.599125 units=km
New Line.1806636E$2045153E phases=3 Bus1=20323256.1.2.3 Bus2=20323285.1.2.3 LineCode=6_CU_3PH_12KV_3 Length=0.157674 units=km
New Line.4672601E$4289800E phases=3 Bus1=20337373.1.2.3 Bus2=20384489.1.2.3 LineCode=4_ACSR_3PH_12KV_3 Length=0.079554 units=km
New Line.4227052E$ND20437028 phases=3 Bus1=20413618.1.2.3 Bus2=20437028.1.2.3 LineCode=1/0_ACSR_3PH_12KV_3 Length=0.048402 units=km
New Line.755486E$ND242937972 phases=3 Bus1=20337427.1.2.3 Bus2=242937972.1.2.3 LineCode=6_CU_3PH_12KV_3 Length=0.044395 units=km
New Line.BF13871$565906E phases=3 Bus1=212876201.1.2.3 Bus2=20323229.1.2.3 LineCode=6_CU_3PH_12KV_3 Length=0.06521 units=km
New Line.ND242937972$897828E phases=3 Bus1=242937972.1.2.3 Bus2=20337452.1.2.3 LineCode=6_CU_3PH_12KV_3 Length=0.041814 units=km
New Line.2045153E$ND20438234 phases=3 Bus1=20323285.1.2.3 Bus2=20438234.1.2.3 LineCode=6_CU_3PH_12KV_3 Length=0.100826 units=km
New Line.ND20437028$BF12892 phases=3 Bus1=20437028.1.2.3 Bus2=204468285.1.2.3 LineCode=1/0_ACSR_3PH_12KV_3 Length=0.169541 units=km
New Line.ND20437028$BF14183 phases=3 Bus1=20437028.1.2.3 Bus2=214310387.1.2.3 LineCode=1/0_ACSR_3PH_12KV_3 Length=0.01749 units=km
New Line.ND207825418$ND236536332 phases=3 Bus1=207825372.1.2.3 Bus2=236536332.1.2.3 LineCode=1/0_ACSR_3PH_12KV_3 Length=0.01628 units=km
New Line.ND242937972$PS6780 phases=3 Bus1=242937972.1.2.3 Bus2=242937966.1.2.3 LineCode=6_CU_3PH_12KV_3 Length=0.00497 units=km
New Line.939597E$PS0009 phases=3 Bus1=15657588.1.2.3 Bus2=15654685.1.2.3 LineCode=336_ACSR_3PH_12KV_3 Length=0.061014 units=km
New Line.ND20438234$2000776E phases=3 Bus1=20438234.1.2.3 Bus2=20323386.1.2.3 LineCode=6_CU_3PH_12KV_3 Length=0.304711 units=km
New Line.ND20438234$FD11094 phases=2 Bus1=20438234.1.2 Bus2=20365036.1.2 LineCode=6_CU_2PH_12KV_2 Length=0.005197 units=km
New Line.ND236536332$418025E phases=3 Bus1=236536332.1.2.3 Bus2=20365159.1.2.3 LineCode=1/0_ACSR_3PH_12KV_3 Length=0.120606 units=km
New Line.897828E$ND20465399 phases=3 Bus1=20337452.1.2.3 Bus2=20465399.1.2.3 LineCode=6_CU_3PH_12KV_3 Length=0.099754 units=km
New Line.565906E$ND20467160 phases=3 Bus1=20323229.1.2.3 Bus2=20467160.1.2.3 LineCode=6_CU_3PH_12KV_3 Length=0.120691 units=km
New Line.939596E$939597E phases=3 Bus1=15654685.1.2.3 Bus2=15657459.1.2.3 LineCode=336_ACSR_3PH_12KV_3 Length=0.068281 units=km
New Line.ND20467160$2045030E phases=3 Bus1=20467160.1.2.3 Bus2=159453400.1.2.3 LineCode=4_ACSR_3PH_12KV_3 Length=0.106923 units=km
New Line.BF14183$1012012E phases=3 Bus1=214310388.1.2.3 Bus2=20323025.1.2.3 LineCode=1/0_ACSR_3PH_12KV_3 Length=0.022636 units=km
New Line.1647949E$BF12892 phases=3 Bus1=204468284.1.2.3 Bus2=20323050.1.2.3 LineCode=1/0_ACSR_3PH_12KV_3 Length=0.1403 units=km
New Line.ND20467160$4362799E phases=3 Bus1=20467160.1.2.3 Bus2=20323179.1.2.3 LineCode=6_CU_3PH_12KV_3 Length=0.252603 units=km
New Line.2000776E$4214541E phases=3 Bus1=20323386.1.2.3 Bus2=20323440.1.2.3 LineCode=6_CU_3PH_12KV_3 Length=0.097703 units=km
New Line.ND20465399$897829E phases=3 Bus1=20465399.1.2.3 Bus2=20337527.1.2.3 LineCode=4_ACSR_3PH_12KV_3 Length=0.025216 units=km
New Line.ND20465399$4600424E phases=3 Bus1=20465399.1.2.3 Bus2=20337552.1.2.3 LineCode=6_CU_3PH_12KV_3 Length=0.196013 units=km
New Line.418025E$4099019E phases=3 Bus1=20365159.1.2.3 Bus2=20337754.1.2.3 LineCode=1/0_ACSR_3PH_12KV_3 Length=0.303742 units=km
New Line.PS6780$PH022E phases=3 Bus1=242937983.1.2.3 Bus2=242938005.1.2.3 LineCode=6_CU_3PH_12KV_3 Length=0.002171 units=km
New Line.ND15658006$939596E phases=3 Bus1=15657459.1.2.3 Bus2=15658006.1.2.3 LineCode=336_ACSR_3PH_12KV_3 Length=0.070446 units=km
New Line.4600424E$4671255E phases=3 Bus1=20337552.1.2.3 Bus2=169609542.1.2.3 LineCode=6_CU_3PH_12KV_3 Length=0.074663 units=km
New Line.1647949E$1647948E phases=3 Bus1=20323050.1.2.3 Bus2=20323000.1.2.3 LineCode=1/0_ACSR_3PH_12KV_3 Length=0.066254 units=km
New Line.4214541E$4247432E phases=3 Bus1=20323440.1.2.3 Bus2=20323469.1.2.3 LineCode=6_CU_3PH_12KV_3 Length=0.479318 units=km
New Line.897829E$2032202E phases=3 Bus1=20337527.1.2.3 Bus2=20337502.1.2.3 LineCode=4_ACSR_3PH_12KV_3 Length=0.14015 units=km
New Line.4099019E$ND20439353 phases=3 Bus1=20337754.1.2.3 Bus2=20439353.1.2.3 LineCode=1/0_ACSR_3PH_12KV_3 Length=0.10324 units=km
New Line.ND20439353$532177E phases=3 Bus1=20439353.1.2.3 Bus2=170589746.1.2.3 LineCode=4_ACSR_3PH_12KV_3 Length=0.012941 units=km
New Line.2032202E$2304245E phases=3 Bus1=20337502.1.2.3 Bus2=20337477.1.2.3 LineCode=4_ACSR_3PH_12KV_3 Length=0.170069 units=km
New Line.4671255E$897833E phases=3 Bus1=169609542.1.2.3 Bus2=20337602.1.2.3 LineCode=6_CU_3PH_12KV_3 Length=0.0799 units=km
New Line.ND20439353$ND20437303 phases=3 Bus1=20439353.1.2.3 Bus2=20437303.1.2.3 LineCode=1/0_ACSR_3PH_12KV_3 Length=0.210744 units=km
New Line.ND20439353$BF12981 phases=2 Bus1=20439353.1.3 Bus2=206379198.1.3 LineCode=6_CU_2PH_12KV_2 Length=0.286407 units=km
New Line.ND251243492$ND15658006 phases=3 Bus1=15658006.1.2.3 Bus2=251243492.1.2.3 LineCode=336_ACSR_3PH_12KV_3 Length=0.093824 units=km
New Line.ND20466028$1260569E phases=3 Bus1=188927847.1.2.3 Bus2=20466028.1.2.3 LineCode=336_ACSR_3PH_12KV_3 Length=0.075574 units=km
New Line.1181140E$ND20467205 phases=3 Bus1=20296450.1.2.3 Bus2=20467205.1.2.3 LineCode=336_ACSR_3PH_12KV_3 Length=0.188634 units=km
New Line.ND193140485$4636092E phases=3 Bus1=193140485.1.2.3 Bus2=103219326.1.2.3 LineCode=4_ACSR_3PH_12KV_3 Length=0.331801 units=km
New Line.ND174684942$BF11371 phases=3 Bus1=174684808.1.2.3 Bus2=174684942.1.2.3 LineCode=6_CU_3PH_12KV_3 Length=0.155106 units=km
New Line.4447948E$ND193140485 phases=3 Bus1=193140485.1.2.3 Bus2=193140461.1.2.3 LineCode=4_ACSR_3PH_12KV_3 Length=0.011126 units=km
New Line.2109792E$ND173078861 phases=3 Bus1=173078861.1.2.3 Bus2=20296373.1.2.3 LineCode=6_CU_3PH_12KV_3 Length=0.021388 units=km
New Line.ND20467205$1260603E phases=3 Bus1=20467205.1.2.3 Bus2=20296477.1.2.3 LineCode=4_ACSR_3PH_12KV_3 Length=0.082004 units=km
New Line.ND20467205$1601834E phases=3 Bus1=20467205.1.2.3 Bus2=20296579.1.2.3 LineCode=336_ACSR_3PH_12KV_3 Length=0.209989 units=km
New Line.1260566E$ND20466028 phases=3 Bus1=20466028.1.2.3 Bus2=20297287.1.2.3 LineCode=336_ACSR_3PH_12KV_3 Length=0.176666 units=km
New Line.ND20466028$1457819E phases=3 Bus1=20466028.1.2.3 Bus2=20297314.1.2.3 LineCode=4_ACSR_3PH_12KV_3 Length=0.201133 units=km
New Line.ND230794791$ND20436942 phases=3 Bus1=230794739.1.2.3 Bus2=20436942.1.2.3 LineCode=336_ACSR_3PH_12KV_3 Length=0.028211 units=km
New Line.4601630E$ND173078861 phases=3 Bus1=173078861.1.2.3 Bus2=96466336.1.2.3 LineCode=6_CU_3PH_12KV_3 Length=0.117723 units=km
New Line.ND174685000$1260566E phases=3 Bus1=20297287.1.2.3 Bus2=174685000.1.2.3 LineCode=336_ACSR_3PH_12KV_3 Length=0.079971 units=km
New Line.2109792E$2198524E phases=3 Bus1=20296373.1.2.3 Bus2=20296398.1.2.3 LineCode=6_CU_3PH_12KV_3 Length=0.120408 units=km
New Line.1215455E$ND174684942 phases=3 Bus1=174684942.1.2.3 Bus2=20297364.1.2.3 LineCode=6_CU_3PH_12KV_3 Length=0.040885 units=km
New Line.ND20436942$2311697E phases=3 Bus1=20436942.1.2.3 Bus2=20297514.1.2.3 LineCode=4_ACSR_3PH_12KV_3 Length=0.073122 units=km
New Line.4636092E$1872340E phases=3 Bus1=103219326.1.2.3 Bus2=20364857.1.2.3 LineCode=4_ACSR_3PH_12KV_3 Length=0.132109 units=km
New Line.4601630E$532539E phases=3 Bus1=96466336.1.2.3 Bus2=20364882.1.2.3 LineCode=6_CU_3PH_12KV_3 Length=0.191252 units=km
New Line.ND20436942$ND20436943 phases=3 Bus1=20436942.1.2.3 Bus2=20436943.1.2.3 LineCode=336_ACSR_3PH_12KV_3 Length=0.235343 units=km
New Line.1601834E$ND20439281 phases=3 Bus1=20296579.1.2.3 Bus2=20439281.1.2.3 LineCode=336_ACSR_3PH_12KV_3 Length=0.0337 units=km
New Line.4601635E$ND174684942 phases=3 Bus1=174684942.1.2.3 Bus2=96466411.1.2.3 LineCode=6_CU_3PH_12KV_3 Length=0.152422 units=km
New Line.BF11564$ND20439281 phases=3 Bus1=20439281.1.2.3 Bus2=154411357.1.2.3 LineCode=4_ACSR_3PH_12KV_3 Length=0.069147 units=km
New Line.ND173079268$ND174685000 phases=3 Bus1=174685000.1.2.3 Bus2=173079268.1.2.3 LineCode=336_ACSR_3PH_12KV_3 Length=0.16096 units=km
New Line.1872340E$1722341E phases=3 Bus1=20364857.1.2.3 Bus2=20296223.1.2.3 LineCode=4_ACSR_3PH_12KV_3 Length=0.127226 units=km
New Line.2198524E$459469E phases=3 Bus1=20296398.1.2.3 Bus2=20296348.1.2.3 LineCode=6_CU_3PH_12KV_3 Length=0.065388 units=km
New Line.4699793E$ND20439281 phases=3 Bus1=20439281.1.2.3 Bus2=20296633.1.2.3 LineCode=336_ACSR_3PH_12KV_3 Length=0.275424 units=km
New Line.ND20436943$959968E phases=3 Bus1=20436943.1.2.3 Bus2=20297541.1.2.3 LineCode=336_ACSR_3PH_12KV_3 Length=0.033261 units=km
New Line.1215455E$4498929E phases=3 Bus1=20297364.1.2.3 Bus2=20410288.1.2.3 LineCode=6_CU_3PH_12KV_3 Length=0.080941 units=km
New Line.ND20436943$ND20435860 phases=3 Bus1=20436943.1.2.3 Bus2=20435860.1.2.3 LineCode=336_ACSR_3PH_12KV_3 Length=0.174288 units=km
New Line.4601635E$ND20436994 phases=3 Bus1=96466411.1.2.3 Bus2=20436994.1.2.3 LineCode=6_CU_3PH_12KV_3 Length=0.055458 units=km
New Line.ND20439281$RCS4156 phases=3 Bus1=20439281.1.2.3 Bus2=210655649.1.2.3 LineCode=336_ACSR_3PH_12KV_3 Length=0.635211 units=km
New Line.4699793E$ND173078674 phases=3 Bus1=20296633.1.2.3 Bus2=173078674.1.2.3 LineCode=336_ACSR_3PH_12KV_3 Length=0.123166 units=km
New Line.ND173078733$ND173079268 phases=3 Bus1=173079268.1.2.3 Bus2=173078733.1.2.3 LineCode=336_ACSR_3PH_12KV_3 Length=0.30034 units=km
New Line.BF11370$ND173079268 phases=3 Bus1=173079268.1.2.3 Bus2=174685010.1.2.3 LineCode=6_CU_3PH_12KV_3 Length=0.006235 units=km
New Line.1722341E$4566646E phases=3 Bus1=20296223.1.2.3 Bus2=20296119.1.2.3 LineCode=4_ACSR_3PH_12KV_3 Length=0.24932 units=km
New Line.4498929E$1872323E phases=3 Bus1=20410288.1.2.3 Bus2=20297339.1.2.3 LineCode=6_CU_3PH_12KV_3 Length=0.144872 units=km
New Line.ND20436994$4601993E phases=3 Bus1=20436994.1.2.3 Bus2=20297389.1.2.3 LineCode=4_ACSR_3PH_12KV_3 Length=0.118738 units=km
New Line.939595E$ND251243492 phases=3 Bus1=251243492.1.2.3 Bus2=15653405.1.2.3 LineCode=336_ACSR_3PH_12KV_3 Length=0.009065 units=km
New Line.ND15658476$ND251243492 phases=3 Bus1=251243492.1.2.3 Bus2=15658476.1.2.3 LineCode=336_ACSR_3PH_12KV_3 Length=0.090209 units=km
New Line.897833E$959783E phases=3 Bus1=20337602.1.2.3 Bus2=20337627.1.2.3 LineCode=6_CU_3PH_12KV_3 Length=0.124156 units=km
New Line.532177E$BF10627 phases=3 Bus1=170589746.1.2.3 Bus2=20435265.1.2.3 LineCode=4_ACSR_3PH_12KV_3 Length=0.008244 units=km
New Line.ND20437303$ND20466299 phases=3 Bus1=20437303.1.2.3 Bus2=20466299.1.2.3 LineCode=1/0_ACSR_3PH_12KV_3 Length=0.09815 units=km
New Line.ND20437303$BF12980 phases=3 Bus1=20437303.1.2.3 Bus2=206379136.1.2.3 LineCode=4_ACSR_3PH_12KV_3 Length=0.106316 units=km
New Line.959968E$PS1762 phases=3 Bus1=20297541.1.2.3 Bus2=20412702.1.2.3 LineCode=336_ACSR_3PH_12KV_3 Length=0.146732 units=km
New Line.ND20436994$ND20436995 phases=3 Bus1=20436994.1.2.3 Bus2=20436995.1.2.3 LineCode=6_CU_3PH_12KV_3 Length=0.205583 units=km
New Line.ND20435860$ND20437255 phases=3 Bus1=20435860.1.2.3 Bus2=20437255.1.2.3 LineCode=336_ACSR_3PH_12KV_3 Length=0.222909 units=km
New Line.ND20436995$4702644E phases=3 Bus1=20436995.1.2.3 Bus2=149107881.1.2.3 LineCode=6_CU_3PH_12KV_3 Length=0.195619 units=km
New Line.ND154411410$BF11564 phases=3 Bus1=154411358.1.2.3 Bus2=154411410.1.2.3 LineCode=4_ACSR_3PH_12KV_3 Length=0.169689 units=km
New Line.ND173078674$ND173078733 phases=3 Bus1=173078733.1.2.3 Bus2=173078674.1.2.3 LineCode=336_ACSR_3PH_12KV_3 Length=0.130306 units=km
New Line.ND173078674$BF11238 phases=3 Bus1=173078674.1.2.3 Bus2=173078693.1.2.3 LineCode=6_CU_3PH_12KV_3 Length=0.019241 units=km
New Line.ND15658476$449605E phases=3 Bus1=15658476.1.2.3 Bus2=15652593.1.2.3 LineCode=1/0_ACSR_3PH_12KV_3 Length=0.363745 units=km
New Line.ND20439075$BF11327 phases=3 Bus1=20439075.1.2.3 Bus2=164316363.1.2.3 LineCode=4_ACSR_3PH_12KV_3 Length=0.028565 units=km
New Line.939594E$ND15658476 phases=3 Bus1=15658476.1.2.3 Bus2=199426337.1.2.3 LineCode=336_ACSR_3PH_12KV_3 Length=0.004904 units=km
New Line.BF12981$1164840E phases=2 Bus1=206379199.1.3 Bus2=20337781.1.3 LineCode=6_CU_2PH_12KV_2 Length=0.245516 units=km
New Line.ND20466299$ND20436866 phases=3 Bus1=20466299.1.2.3 Bus2=20436866.1.2.3 LineCode=1/0_ACSR_3PH_12KV_3 Length=0.098546 units=km
New Line.959783E$ND20465218 phases=3 Bus1=20337627.1.2.3 Bus2=20465218.1.2.3 LineCode=6_CU_3PH_12KV_3 Length=0.028214 units=km
New Line.ND20466299$BF12979 phases=3 Bus1=20466299.1.2.3 Bus2=206379093.1.2.3 LineCode=4_ACSR_3PH_12KV_3 Length=0.201716 units=km
New Line.449605E$ND15658814 phases=3 Bus1=15652593.1.2.3 Bus2=15658814.1.2.3 LineCode=1/0_ACSR_3PH_12KV_3 Length=0.022286 units=km
New Line.ND20465218$4600423E phases=3 Bus1=20465218.1.2.3 Bus2=20337652.1.2.3 LineCode=4_ACSR_3PH_12KV_3 Length=0.168121 units=km
New Line.ND20436995$1602369E phases=3 Bus1=20436995.1.2.3 Bus2=20297464.1.2.3 LineCode=4_ACSR_3PH_12KV_3 Length=0.229467 units=km
New Line.ND20437255$ND20468156 phases=3 Bus1=20437255.1.2.3 Bus2=20468156.1.2.3 LineCode=336_ACSR_3PH_12KV_3 Length=0.180764 units=km
New Line.ND20437255$BF13026 phases=3 Bus1=20437255.1.2.3 Bus2=206335742.1.2.3 LineCode=4_ACSR_3PH_12KV_3 Length=0.028303 units=km
...

! Switches
New Line.4122600E:4122600E phases=3 Bus1=242212242.1.2.3 Bus2=242212243.1.2.3 switch=y r1=0.001 x1=0.001 r0=0.001 x0=0.001 Length=0.001 units=km
New Line.4227052E:4227052E phases=3 Bus1=20413617.1.2.3 Bus2=20413618.1.2.3 switch=y r1=0.001 x1=0.001 r0=0.001 x0=0.001 Length=0.001 units=km
New Line.754042E:754042E phases=3 Bus1=20412982.1.2.3 Bus2=20412981.1.2.3 switch=y r1=0.001 x1=0.001 r0=0.001 x0=0.001 Length=0.001 units=km
New Line.401134E:401134E phases=3 Bus1=15657643.1.2.3 Bus2=15657644.1.2.3 switch=y r1=0.001 x1=0.001 r0=0.001 x0=0.001 Length=0.001 units=km
New Line.REDBANKS$SEVILLE_RCS4156$RCS4156 phases=3 Bus1=210655678.1.2.3 Bus2=-777777210655678.1.2.3 switch=y r1=0.001 x1=0.001 r0=0.001 x0=0.001 Length=0.001 units=km
New Line.REDBANKS$WELLS_PS1762$PS1762 phases=3 Bus1=20412701.1.2.3 Bus2=-77777720412701.1.2.3 switch=y r1=0.001 x1=0.001 r0=0.001 x0=0.001 Length=0.001 units=km
New Line.REDBANKS$SEVILLE_PS4277$PS4277 phases=3 Bus1=216989294.1.2.3 Bus2=-777777216989294.1.2.3 switch=y r1=0.001 x1=0.001 r0=0.001 x0=0.001 Length=0.001 units=km
New Line.REDBANKS$HOMER_PS0778$PS0778 phases=3 Bus1=169280168.1.2.3 Bus2=-777777169280168.1.2.3 switch=y r1=0.001 x1=0.001 r0=0.001 x0=0.001 Length=0.001 units=km
New Line.5779040:P5779040-B phases=1 Bus1=276289417.1 Bus2=276289425.1 switch=y r1=0.001 x1=0.001 r0=0.001 x0=0.001 Length=0.001 units=km enabled=false
New Line.276289513 phases=1 Bus1=276289515.3 Bus2=276289516.3 switch=y r1=0.001 x1=0.001 r0=0.001 x0=0.001 Length=0.001 units=km
New Line.214689335 phases=2 Bus1=214689338.1.3 Bus2=214689337.1.3 switch=y r1=0.001 x1=0.001 r0=0.001 x0=0.001 Length=0.001 units=km
New Line.230794763$PDREG02999-B phases=3 Bus1=230794721.1.2.3 Bus2=230794709.1.2.3 switch=y r1=0.001 x1=0.001 r0=0.001 x0=0.001 Length=0.001 units=km
New Line.230794763$PDREG02999-C phases=3 Bus1=230794721.1.2.3 Bus2=230794722.1.2.3 switch=y r1=0.001 x1=0.001 r0=0.001 x0=0.001 Length=0.001 units=km
New Line.207825394$PDRAR0717-B phases=3 Bus1=207825354.1.2.3 Bus2=207825342.1.2.3 switch=y r1=0.001 x1=0.001 r0=0.001 x0=0.001 Length=0.001 units=km
New Line.207825394$PDRAR0717-C phases=3 Bus1=207825354.1.2.3 Bus2=207825355.1.2.3 switch=y r1=0.001 x1=0.001 r0=0.001 x0=0.001 Length=0.001 units=km
New Line.107994960 phases=2 Bus1=107994962.1.3 Bus2=107994963.1.3 switch=y r1=0.001 x1=0.001 r0=0.001 x0=0.001 Length=0.001 units=km
New Line.236039553 phases=3 Bus1=236039556.1.2.3 Bus2=236039555.1.2.3 switch=y r1=0.001 x1=0.001 r0=0.001 x0=0.001 Length=0.001 units=km
New Line.207825398$PDRAR0717-C phases=3 Bus1=207825373.1.2.3 Bus2=207825372.1.2.3 switch=y r1=0.001 x1=0.001 r0=0.001 x0=0.001 Length=0.001 units=km
New Line.236039579 phases=2 Bus1=236039582.1.2 Bus2=236039581.1.2 switch=y r1=0.001 x1=0.001 r0=0.001 x0=0.001 Length=0.001 units=km
New Line.207825398$PDRAR0717-D phases=3 Bus1=207825372.1.2.3 Bus2=207825348.1.2.3 switch=y r1=0.001 x1=0.001 r0=0.001 x0=0.001 Length=0.001 units=km
New Line.236039656 phases=3 Bus1=236039658.1.2.3 Bus2=236039659.1.2.3 switch=y r1=0.001 x1=0.001 r0=0.001 x0=0.001 Length=0.001 units=km
New Line.236039604 phases=2 Bus1=236039606.1.2 Bus2=236039607.1.2 switch=y r1=0.001 x1=0.001 r0=0.001 x0=0.001 Length=0.001 units=km
New Line.107994990 phases=2 Bus1=107994993.1.3 Bus2=107994992.1.3 switch=y r1=0.001 x1=0.001 r0=0.001 x0=0.001 Length=0.001 units=km
New Line.PME6290-2$PME6290-1 phases=3 Bus1=236039021.1.2.3 Bus2=236039020.1.2.3 switch=y r1=0.001 x1=0.001 r0=0.001 x0=0.001 Length=0.001 units=km
New Line.PME6289-2$PME6289-1 phases=3 Bus1=236038937.1.2.3 Bus2=236038936.1.2.3 switch=y r1=0.001 x1=0.001 r0=0.001 x0=0.001 Length=0.001 units=km
New Line.PDREG02999-B$4956101E phases=3 Bus1=230794710.1.2.3 Bus2=230794734.1.2.3 switch=y r1=0.001 x1=0.001 r0=0.001 x0=0.001 Length=0.001 units=km
New Line.230794767$PDREG02999-C phases=3 Bus1=230794740.1.2.3 Bus2=230794739.1.2.3 switch=y r1=0.001 x1=0.001 r0=0.001 x0=0.001 Length=0.001 units=km
New Line.230794767$PDREG02999-D phases=3 Bus1=230794739.1.2.3 Bus2=230794715.1.2.3 switch=y r1=0.001 x1=0.001 r0=0.001 x0=0.001 Length=0.001 units=km
New Line.PDREG02999-D$4956101E phases=3 Bus1=230794746.1.2.3 Bus2=230794716.1.2.3 switch=y r1=0.001 x1=0.001 r0=0.001 x0=0.001 Length=0.001 units=km
New Line.107994910 phases=2 Bus1=107994912.1.3 Bus2=107994913.1.3 switch=y r1=0.001 x1=0.001 r0=0.001 x0=0.001 Length=0.001 units=km
New Line.107994935 phases=2 Bus1=107994937.1.3 Bus2=107994938.1.3 switch=y r1=0.001 x1=0.001 r0=0.001 x0=0.001 Length=0.001 units=km
New Line.236039682 phases=2 Bus1=236039685.2.3 Bus2=236039684.2.3 switch=y r1=0.001 x1=0.001 r0=0.001 x0=0.001 Length=0.001 units=km
New Line.107994885 phases=2 Bus1=107994887.1.3 Bus2=107994888.1.3 switch=y r1=0.001 x1=0.001 r0=0.001 x0=0.001 Length=0.001 units=km
New Line.236039631 phases=2 Bus1=236039634.1.2 Bus2=236039633.1.2 switch=y r1=0.001 x1=0.001 r0=0.001 x0=0.001 Length=0.001 units=km
New Line.236039707 phases=2 Bus1=236039709.2.3 Bus2=236039710.2.3 switch=y r1=0.001 x1=0.001 r0=0.001 x0=0.001 Length=0.001 units=km
New Line.4289785E:20384525 phases=3 Bus1=20384527.1.2.3 Bus2=20384528.1.2.3 switch=y r1=0.001 x1=0.001 r0=0.001 x0=0.001 Length=0.001 units=km
New Line.1215654E:20384554 phases=3 Bus1=20384556.1.2.3 Bus2=20384557.1.2.3 switch=y r1=0.001 x1=0.001 r0=0.001 x0=0.001 Length=0.001 units=km
New Line.1529663E:20296076 phases=3 Bus1=20296078.1.2.3 Bus2=20296079.1.2.3 switch=y r1=0.001 x1=0.001 r0=0.001 x0=0.001 Length=0.001 units=km
New Line.4201097E:20384051 phases=3 Bus1=20384053.1.2.3 Bus2=20384054.1.2.3 switch=y r1=0.001 x1=0.001 r0=0.001 x0=0.001 Length=0.001 units=km
New Line.4122552E:20322957 phases=3 Bus1=20322959.1.2.3 Bus2=20322960.1.2.3 switch=y r1=0.001 x1=0.001 r0=0.001 x0=0.001 Length=0.001 units=km
New Line.1012008E:20323107 phases=3 Bus1=20323109.1.2.3 Bus2=20323110.1.2.3 switch=y r1=0.001 x1=0.001 r0=0.001 x0=0.001 Length=0.001 units=km
New Line.602877E:20296126 phases=3 Bus1=20296128.1.2.3 Bus2=20296129.1.2.3 switch=y r1=0.001 x1=0.001 r0=0.001 x0=0.001 Length=0.001 units=km
New Line.4368397E:20384583 phases=3 Bus1=20384585.1.2.3 Bus2=20384586.1.2.3 switch=y r1=0.001 x1=0.001 r0=0.001 x0=0.001 Length=0.001 units=km
New Line.4473510E:20387818 phases=3 Bus1=20387820.1.2.3 Bus2=20387821.1.2.3 switch=y r1=0.001 x1=0.001 r0=0.001 x0=0.001 Length=0.001 units=km
New Line.4622926E:96466222 phases=3 Bus1=96466224.1.2.3 Bus2=96466225.1.2.3 switch=y r1=0.001 x1=0.001 r0=0.001 x0=0.001 Length=0.001 units=km
New Line.4635708E:20295926 phases=3 Bus1=20295928.1.2.3 Bus2=20295929.1.2.3 switch=y r1=0.001 x1=0.001 r0=0.001 x0=0.001 Length=0.001 units=km
New Line.723201E:20295951 phases=3 Bus1=20295953.1.2.3 Bus2=20295954.1.2.3 switch=y r1=0.001 x1=0.001 r0=0.001 x0=0.001 Length=0.001 units=km
New Line.601390E:20337380 phases=3 Bus1=20337382.1.2.3 Bus2=20337383.1.2.3 switch=y r1=0.001 x1=0.001 r0=0.001 x0=0.001 Length=0.001 units=km
New Line.1012002E:20366364 phases=3 Bus1=20366366.1.2.3 Bus2=20366367.1.2.3 switch=y r1=0.001 x1=0.001 r0=0.001 x0=0.001 Length=0.001 units=km
New Line.2043719E:20323057 phases=3 Bus1=20323059.1.2.3 Bus2=20323060.1.2.3 switch=y r1=0.001 x1=0.001 r0=0.001 x0=0.001 Length=0.001 units=km
New Line.4210432E:20365010 phases=3 Bus1=20365012.1.2.3 Bus2=20365013.1.2.3 switch=y r1=0.001 x1=0.001 r0=0.001 x0=0.001 Length=0.001 units=km
New Line.2331540E:20365089 phases=3 Bus1=20365091.1.2.3 Bus2=20365092.1.2.3 switch=y r1=0.001 x1=0.001 r0=0.001 x0=0.001 Length=0.001 units=km
New Line.410643E:20296305 phases=3 Bus1=20296307.1.2.3 Bus2=20296308.1.2.3 switch=y r1=0.001 x1=0.001 r0=0.001 x0=0.001 Length=0.001 units=km
New Line.2311695E:20297471 phases=3 Bus1=20297473.1.2.3 Bus2=20297474.1.2.3 switch=y r1=0.001 x1=0.001 r0=0.001 x0=0.001 Length=0.001 units=km
New Line.4251710E:20295976 phases=3 Bus1=20295978.1.2.3 Bus2=20295979.1.2.3 switch=y r1=0.001 x1=0.001 r0=0.001 x0=0.001 Length=0.001 units=km
New Line.1873147E:20296155 phases=3 Bus1=20296157.1.2.3 Bus2=20296158.1.2.3 switch=y r1=0.001 x1=0.001 r0=0.001 x0=0.001 Length=0.001 units=km
New Line.410645E:20296280 phases=3 Bus1=20296282.1.2.3 Bus2=20296283.1.2.3 switch=y r1=0.001 x1=0.001 r0=0.001 x0=0.001 Length=0.001 units=km
New Line.4262573E:20366078 phases=3 Bus1=20366080.1.2.3 Bus2=20366081.1.2.3 switch=y r1=0.001 x1=0.001 r0=0.001 x0=0.001 Length=0.001 units=km
New Line.755484E:20365114 phases=3 Bus1=20365116.1.2.3 Bus2=20365117.1.2.3 switch=y r1=0.001 x1=0.001 r0=0.001 x0=0.001 Length=0.001 units=km
New Line.2111663E:20323136 phases=3 Bus1=20323138.1.2.3 Bus2=20323139.1.2.3 switch=y r1=0.001 x1=0.001 r0=0.001 x0=0.001 Length=0.001 units=km
New Line.1806636E:20323236 phases=3 Bus1=20323238.1.2.3 Bus2=20323239.1.2.3 switch=y r1=0.001 x1=0.001 r0=0.001 x0=0.001 Length=0.001 units=km
New Line.4672601E:20337355 phases=3 Bus1=20337357.1.2.3 Bus2=20337358.1.2.3 switch=y r1=0.001 x1=0.001 r0=0.001 x0=0.001 Length=0.001 units=km
New Line.755486E:20337409 phases=3 Bus1=20337411.1.2.3 Bus2=20337412.1.2.3 switch=y r1=0.001 x1=0.001 r0=0.001 x0=0.001 Length=0.001 units=km
New Line.870716E:251243864 phases=3 Bus1=251243866.1.2.3 Bus2=251243867.1.2.3 switch=y r1=0.001 x1=0.001 r0=0.001 x0=0.001 Length=0.001 units=km
New Line.2191397E:20323082 phases=3 Bus1=20323084.1.2.3 Bus2=20323085.1.2.3 switch=y r1=0.001 x1=0.001 r0=0.001 x0=0.001 Length=0.001 units=km
New Line.2045153E:20323265 phases=3 Bus1=20323267.1.2.3 Bus2=20323268.1.2.3 switch=y r1=0.001 x1=0.001 r0=0.001 x0=0.001 Length=0.001 units=km
New Line.4289800E:20384471 phases=3 Bus1=20384473.1.2.3 Bus2=20384474.1.2.3 switch=y r1=0.001 x1=0.001 r0=0.001 x0=0.001 Length=0.001 units=km
New Line.565906E:20323211 phases=3 Bus1=20323213.1.2.3 Bus2=20323214.1.2.3 switch=y r1=0.001 x1=0.001 r0=0.001 x0=0.001 Length=0.001 units=km
New Line.897828E:20337434 phases=3 Bus1=20337436.1.2.3 Bus2=20337437.1.2.3 switch=y r1=0.001 x1=0.001 r0=0.001 x0=0.001 Length=0.001 units=km
New Line.939597E:15654665 phases=3 Bus1=15654667.1.2.3 Bus2=15654668.1.2.3 switch=y r1=0.001 x1=0.001 r0=0.001 x0=0.001 Length=0.001 units=km
New Line.2000776E:20323366 phases=3 Bus1=20323368.1.2.3 Bus2=20323369.1.2.3 switch=y r1=0.001 x1=0.001 r0=0.001 x0=0.001 Length=0.001 units=km
New Line.418025E:20365139 phases=3 Bus1=20365141.1.2.3 Bus2=20365142.1.2.3 switch=y r1=0.001 x1=0.001 r0=0.001 x0=0.001 Length=0.001 units=km
New Line.939596E:15657439 phases=3 Bus1=15657441.1.2.3 Bus2=15657442.1.2.3 switch=y r1=0.001 x1=0.001 r0=0.001 x0=0.001 Length=0.001 units=km
New Line.2045030E:159453403 phases=3 Bus1=159453405.1.2.3 Bus2=159453406.1.2.3 switch=y r1=0.001 x1=0.001 r0=0.001 x0=0.001 Length=0.001 units=km
New Line.1012012E:20323007 phases=3 Bus1=20323009.1.2.3 Bus2=20323010.1.2.3 switch=y r1=0.001 x1=0.001 r0=0.001 x0=0.001 Length=0.001 units=km
New Line.1647949E:20323032 phases=3 Bus1=20323034.1.2.3 Bus2=20323035.1.2.3 switch=y r1=0.001 x1=0.001 r0=0.001 x0=0.001 Length=0.001 units=km
New Line.4362799E:20323161 phases=3 Bus1=20323163.1.2.3 Bus2=20323164.1.2.3 switch=y r1=0.001 x1=0.001 r0=0.001 x0=0.001 Length=0.001 units=km
New Line.4214541E:20323420 phases=3 Bus1=20323422.1.2.3 Bus2=20323423.1.2.3 switch=y r1=0.001 x1=0.001 r0=0.001 x0=0.001 Length=0.001 units=km
New Line.897829E:20337509 phases=3 Bus1=20337511.1.2.3 Bus2=20337512.1.2.3 switch=y r1=0.001 x1=0.001 r0=0.001 x0=0.001 Length=0.001 units=km
New Line.4600424E:20337534 phases=3 Bus1=20337536.1.2.3 Bus2=20337537.1.2.3 switch=y r1=0.001 x1=0.001 r0=0.001 x0=0.001 Length=0.001 units=km
New Line.4099019E:20337734 phases=3 Bus1=20337736.1.2.3 Bus2=20337737.1.2.3 switch=y r1=0.001 x1=0.001 r0=0.001 x0=0.001 Length=0.001 units=km
New Line.1260569E:188927826 phases=3 Bus1=188927828.1.2.3 Bus2=188927829.1.2.3 switch=y r1=0.001 x1=0.001 r0=0.001 x0=0.001 Length=0.001 units=km
New Line.1181047E:20296001 phases=3 Bus1=20296003.1.2.3 Bus2=20296004.1.2.3 switch=y r1=0.001 x1=0.001 r0=0.001 x0=0.001 Length=0.001 units=km
New Line.4600145E:20296026 phases=3 Bus1=20296028.1.2.3 Bus2=20296029.1.2.3 switch=y r1=0.001 x1=0.001 r0=0.001 x0=0.001 Length=0.001 units=km
New Line.1467900E:20296180 phases=3 Bus1=20296182.1.2.3 Bus2=20296183.1.2.3 switch=y r1=0.001 x1=0.001 r0=0.001 x0=0.001 Length=0.001 units=km
New Line.1181140E:20296430 phases=3 Bus1=20296432.1.2.3 Bus2=20296433.1.2.3 switch=y r1=0.001 x1=0.001 r0=0.001 x0=0.001 Length=0.001 units=km
New Line.281544E:20295901 phases=3 Bus1=20295903.1.2.3 Bus2=20295904.1.2.3 switch=y r1=0.001 x1=0.001 r0=0.001 x0=0.001 Length=0.001 units=km
New Line.4636092E:103219307 phases=3 Bus1=103219309.1.2.3 Bus2=103219310.1.2.3 switch=y r1=0.001 x1=0.001 r0=0.001 x0=0.001 Length=0.001 units=km
New Line.2109792E:20296355 phases=3 Bus1=20296357.1.2.3 Bus2=20296358.1.2.3 switch=y r1=0.001 x1=0.001 r0=0.001 x0=0.001 Length=0.001 units=km
New Line.1260603E:20296459 phases=3 Bus1=20296461.1.2.3 Bus2=20296462.1.2.3 switch=y r1=0.001 x1=0.001 r0=0.001 x0=0.001 Length=0.001 units=km
New Line.1601834E:20296559 phases=3 Bus1=20296561.1.2.3 Bus2=20296562.1.2.3 switch=y r1=0.001 x1=0.001 r0=0.001 x0=0.001 Length=0.001 units=km
New Line.1260566E:20297267 phases=3 Bus1=20297269.1.2.3 Bus2=20297270.1.2.3 switch=y r1=0.001 x1=0.001 r0=0.001 x0=0.001 Length=0.001 units=km
New Line.1457819E:20297296 phases=3 Bus1=20297298.1.2.3 Bus2=20297299.1.2.3 switch=y r1=0.001 x1=0.001 r0=0.001 x0=0.001 Length=0.001 units=km
New Line.4601630E:96466316 phases=3 Bus1=96466318.1.2.3 Bus2=96466319.1.2.3 switch=y r1=0.001 x1=0.001 r0=0.001 x0=0.001 Length=0.001 units=km
New Line.2198524E:20296380 phases=3 Bus1=20296382.1.2.3 Bus2=20296383.1.2.3 switch=y r1=0.001 x1=0.001 r0=0.001 x0=0.001 Length=0.001 units=km
New Line.1215455E:20297346 phases=3 Bus1=20297348.1.2.3 Bus2=20297349.1.2.3 switch=y r1=0.001 x1=0.001 r0=0.001 x0=0.001 Length=0.001 units=km
New Line.2311697E:20297496 phases=3 Bus1=20297498.1.2.3 Bus2=20297499.1.2.3 switch=y r1=0.001 x1=0.001 r0=0.001 x0=0.001 Length=0.001 units=km
New Line.4671255E:169609521 phases=3 Bus1=169609523.1.2.3 Bus2=169609524.1.2.3 switch=y r1=0.001 x1=0.001 r0=0.001 x0=0.001 Length=0.001 units=km
New Line.1647948E:20322982 phases=3 Bus1=20322984.1.2.3 Bus2=20322985.1.2.3 switch=y r1=0.001 x1=0.001 r0=0.001 x0=0.001 Length=0.001 units=km
New Line.4247432E:20323449 phases=3 Bus1=20323451.1.2.3 Bus2=20323452.1.2.3 switch=y r1=0.001 x1=0.001 r0=0.001 x0=0.001 Length=0.001 units=km
New Line.2032202E:20337484 phases=3 Bus1=20337486.1.2.3 Bus2=20337487.1.2.3 switch=y r1=0.001 x1=0.001 r0=0.001 x0=0.001 Length=0.001 units=km
New Line.1872340E:20364839 phases=3 Bus1=20364841.1.2.3 Bus2=20364842.1.2.3 switch=y r1=0.001 x1=0.001 r0=0.001 x0=0.001 Length=0.001 units=km
New Line.532539E:20364864 phases=3 Bus1=20364866.1.2.3 Bus2=20364867.1.2.3 switch=y r1=0.001 x1=0.001 r0=0.001 x0=0.001 Length=0.001 units=km
New Line.4601635E:96466391 phases=3 Bus1=96466393.1.2.3 Bus2=96466394.1.2.3 switch=y r1=0.001 x1=0.001 r0=0.001 x0=0.001 Length=0.001 units=km
New Line.1722341E:20296205 phases=3 Bus1=20296207.1.2.3 Bus2=20296208.1.2.3 switch=y r1=0.001 x1=0.001 r0=0.001 x0=0.001 Length=0.001 units=km
New Line.459469E:20296330 phases=3 Bus1=20296332.1.2.3 Bus2=20296333.1.2.3 switch=y r1=0.001 x1=0.001 r0=0.001 x0=0.001 Length=0.001 units=km
New Line.532177E:170589725 phases=3 Bus1=170589727.1.2.3 Bus2=170589728.1.2.3 switch=y r1=0.001 x1=0.001 r0=0.001 x0=0.001 Length=0.001 units=km
New Line.2304245E:20337459 phases=3 Bus1=20337461.1.2.3 Bus2=20337462.1.2.3 switch=y r1=0.001 x1=0.001 r0=0.001 x0=0.001 Length=0.001 units=km
New Line.897833E:20337584 phases=3 Bus1=20337586.1.2.3 Bus2=20337587.1.2.3 switch=y r1=0.001 x1=0.001 r0=0.001 x0=0.001 Length=0.001 units=km
New Line.4227071E:240891161 phases=3 Bus1=240891163.1.2.3 Bus2=240891164.1.2.3 switch=y r1=0.001 x1=0.001 r0=0.001 x0=0.001 Length=0.001 units=km
New Line.959783E:20337609 phases=3 Bus1=20337611.1.2.3 Bus2=20337612.1.2.3 switch=y r1=0.001 x1=0.001 r0=0.001 x0=0.001 Length=0.001 units=km
New Line.4699793E:20296613 phases=3 Bus1=20296615.1.2.3 Bus2=20296616.1.2.3 switch=y r1=0.001 x1=0.001 r0=0.001 x0=0.001 Length=0.001 units=km
New Line.186380426 phases=2 Bus1=186380428.2.3 Bus2=186380429.2.3 switch=y r1=0.001 x1=0.001 r0=0.001 x0=0.001 Length=0.001 units=km
New Line.236039732 phases=2 Bus1=236039734.1.2 Bus2=236039735.1.2 switch=y r1=0.001 x1=0.001 r0=0.001 x0=0.001 Length=0.001 units=km
New Line.230763920$PDRSR6112-B phases=3 Bus1=230763880.1.2.3 Bus2=230763868.1.2.3 switch=y r1=0.001 x1=0.001 r0=0.001 x0=0.001 Length=0.001 units=km
New Line.PDRSR6112-B$RSR6112 phases=3 Bus1=230763869.1.2.3 Bus2=230763862.1.2.3 switch=y r1=0.001 x1=0.001 r0=0.001 x0=0.001 Length=0.001 units=km
New Line.200516934 phases=3 Bus1=200516936.1.2.3 Bus2=200516937.1.2.3 switch=y r1=0.001 x1=0.001 r0=0.001 x0=0.001 Length=0.001 units=km
New Line.175015065$GS3569-2 phases=3 Bus1=175015047.1.2.3 Bus2=175015048.1.2.3 switch=y r1=0.001 x1=0.001 r0=0.001 x0=0.001 Length=0.001 units=km
New Line.199427270 phases=2 Bus1=199427272.2.3 Bus2=199427273.2.3 switch=y r1=0.001 x1=0.001 r0=0.001 x0=0.001 Length=0.001 units=km
New Line.GS3569-2$175015083 phases=3 Bus1=175015048.1.2.3 Bus2=175015054.1.2.3 switch=y r1=0.001 x1=0.001 r0=0.001 x0=0.001 Length=0.001 units=km
New Line.175015083$175015092 phases=3 Bus1=175015054.1.2.3 Bus2=175015060.1.2.3 switch=y r1=0.001 x1=0.001 r0=0.001 x0=0.001 Length=0.001 units=km
New Line.241560158 phases=2 Bus1=241560161.2.3 Bus2=241560160.2.3 switch=y r1=0.001 x1=0.001 r0=0.001 x0=0.001 Length=0.001 units=km
New Line.20383745$D phases=3 Bus1=20383719.1.2.3 Bus2=20383695.1.2.3 switch=y r1=0.001 x1=0.001 r0=0.001 x0=0.001 Length=0.001 units=km
New Line.20383745$C phases=3 Bus1=20383719.1.2.3 Bus2=20383720.1.2.3 switch=y r1=0.001 x1=0.001 r0=0.001 x0=0.001 Length=0.001 units=km
New Line.20383741$C phases=3 Bus1=20383702.1.2.3 Bus2=20383701.1.2.3 switch=y r1=0.001 x1=0.001 r0=0.001 x0=0.001 Length=0.001 units=km
New Line.20383741$B phases=3 Bus1=20383701.1.2.3 Bus2=20383689.1.2.3 switch=y r1=0.001 x1=0.001 r0=0.001 x0=0.001 Length=0.001 units=km
New Line.208061897 phases=2 Bus1=208061899.1.2 Bus2=208061900.1.2 switch=y r1=0.001 x1=0.001 r0=0.001 x0=0.001 Length=0.001 units=km
New Line.107994860 phases=2 Bus1=107994863.1.3 Bus2=107994862.1.3 switch=y r1=0.001 x1=0.001 r0=0.001 x0=0.001 Length=0.001 units=km
New Line.236039759 phases=2 Bus1=236039762.1.2 Bus2=236039761.1.2 switch=y r1=0.001 x1=0.001 r0=0.001 x0=0.001 Length=0.001 units=km
New Line.236039784 phases=2 Bus1=236039787.1.2 Bus2=236039786.1.2 switch=y r1=0.001 x1=0.001 r0=0.001 x0=0.001 Length=0.001 units=km
New Line.241560197 phases=2 Bus1=241560199.2.3 Bus2=241560200.2.3 switch=y r1=0.001 x1=0.001 r0=0.001 x0=0.001 Length=0.001 units=km
New Line.107994833 phases=2 Bus1=107994835.1.3 Bus2=107994836.1.3 switch=y r1=0.001 x1=0.001 r0=0.001 x0=0.001 Length=0.001 units=km
New Line.199427309 phases=2 Bus1=199427312.2.3 Bus2=199427311.2.3 switch=y r1=0.001 x1=0.001 r0=0.001 x0=0.001 Length=0.001 units=km
New Line.4367628E:PS0325 phases=3 Bus1=20412602.1.2.3 Bus2=20412603.1.2.3 switch=y r1=0.001 x1=0.001 r0=0.001 x0=0.001 Length=0.001 units=km enabled=false
New Line.4934364E:PS4301 phases=3 Bus1=218757294.1.2.3 Bus2=218757293.1.2.3 switch=y r1=0.001 x1=0.001 r0=0.001 x0=0.001 Length=0.001 units=km
New Line.4901944E:PS5818 phases=3 Bus1=238433758.1.2.3 Bus2=238433757.1.2.3 switch=y r1=0.001 x1=0.001 r0=0.001 x0=0.001 Length=0.001 units=km
New Line.4044597E:PDRAR0717-B phases=3 Bus1=207825342.1.2.3 Bus2=207825343.1.2.3 switch=y r1=0.001 x1=0.001 r0=0.001 x0=0.001 Length=0.001 units=km
New Line.4044597E:PDRAR0717-C phases=3 Bus1=207825355.1.2.3 Bus2=207825373.1.2.3 switch=y r1=0.001 x1=0.001 r0=0.001 x0=0.001 Length=0.001 units=km enabled=false
New Line.4956101E:PDREG02999-B phases=3 Bus1=230794709.1.2.3 Bus2=230794710.1.2.3 switch=y r1=0.001 x1=0.001 r0=0.001 x0=0.001 Length=0.001 units=km
New Line.4956101E:PDREG02999-C phases=3 Bus1=230794722.1.2.3 Bus2=230794740.1.2.3 switch=y r1=0.001 x1=0.001 r0=0.001 x0=0.001 Length=0.001 units=km enabled=false
New Line.870716E:PS0009 phases=3 Bus1=15657589.1.2.3 Bus2=15657588.1.2.3 switch=y r1=0.001 x1=0.001 r0=0.001 x0=0.001 Length=0.001 units=km
New Line.4044597E:PDRAR0717-D phases=3 Bus1=207825348.1.2.3 Bus2=207825349.1.2.3 switch=y r1=0.001 x1=0.001 r0=0.001 x0=0.001 Length=0.001 units=km
New Line.1620022E:PS6780 phases=3 Bus1=242937966.1.2.3 Bus2=242937983.1.2.3 switch=y r1=0.001 x1=0.001 r0=0.001 x0=0.001 Length=0.001 units=km
New Line.5761321:PME6290-1 phases=3 Bus1=236039038.1.2.3 Bus2=236039021.1.2.3 switch=y r1=0.001 x1=0.001 r0=0.001 x0=0.001 Length=0.001 units=km enabled=false
New Line.5761313:PME6289-1 phases=2 Bus1=236038954.1.2 Bus2=236038937.1.2 switch=y r1=0.001 x1=0.001 r0=0.001 x0=0.001 Length=0.001 units=km enabled=false
New Line.4956101E:PDREG02999-D phases=3 Bus1=230794715.1.2.3 Bus2=230794716.1.2.3 switch=y r1=0.001 x1=0.001 r0=0.001 x0=0.001 Length=0.001 units=km
New Line.1260593E:RCS1765 phases=3 Bus1=20435340.1.2.3 Bus2=20435341.1.2.3 switch=y r1=0.001 x1=0.001 r0=0.001 x0=0.001 Length=0.001 units=km
New Line.959968E:20297521 phases=3 Bus1=20297523.1.2.3 Bus2=20297524.1.2.3 switch=y r1=0.001 x1=0.001 r0=0.001 x0=0.001 Length=0.001 units=km
New Line.4498929E:20410270 phases=3 Bus1=20410272.1.2.3 Bus2=20410273.1.2.3 switch=y r1=0.001 x1=0.001 r0=0.001 x0=0.001 Length=0.001 units=km
New Line.1872323E:20297321 phases=3 Bus1=20297323.1.2.3 Bus2=20297324.1.2.3 switch=y r1=0.001 x1=0.001 r0=0.001 x0=0.001 Length=0.001 units=km
New Line.4601993E:96466251 phases=3 Bus1=96466253.1.2.3 Bus2=96466254.1.2.3 switch=y r1=0.001 x1=0.001 r0=0.001 x0=0.001 Length=0.001 units=km
New Line.4566646E:96466282 phases=3 Bus1=96466284.1.2.3 Bus2=96466285.1.2.3 switch=y r1=0.001 x1=0.001 r0=0.001 x0=0.001 Length=0.001 units=km
New Line.4702644E:149107860 phases=3 Bus1=149107862.1.2.3 Bus2=149107863.1.2.3 switch=y r1=0.001 x1=0.001 r0=0.001 x0=0.001 Length=0.001 units=km
New Line.1602369E:20297446 phases=3 Bus1=20297448.1.2.3 Bus2=20297449.1.2.3 switch=y r1=0.001 x1=0.001 r0=0.001 x0=0.001 Length=0.001 units=km
New Line.4098754E:174685054 phases=3 Bus1=174685056.1.2.3 Bus2=174685057.1.2.3 switch=y r1=0.001 x1=0.001 r0=0.001 x0=0.001 Length=0.001 units=km
New Line.1601831E:20296509 phases=3 Bus1=20296511.1.2.3 Bus2=20296512.1.2.3 switch=y r1=0.001 x1=0.001 r0=0.001 x0=0.001 Length=0.001 units=km
New Line.2164501E:20296484 phases=3 Bus1=20296486.1.2.3 Bus2=20296487.1.2.3 switch=y r1=0.001 x1=0.001 r0=0.001 x0=0.001 Length=0.001 units=km
New Line.4226531E:20297042 phases=3 Bus1=20297044.1.2.3 Bus2=20297045.1.2.3 switch=y r1=0.001 x1=0.001 r0=0.001 x0=0.001 Length=0.001 units=km
New Line.4247277E:20297550 phases=3 Bus1=20297552.1.2.3 Bus2=20297553.1.2.3 switch=y r1=0.001 x1=0.001 r0=0.001 x0=0.001 Length=0.001 units=km
New Line.1757881E:20297675 phases=3 Bus1=20297677.1.2.3 Bus2=20297678.1.2.3 switch=y r1=0.001 x1=0.001 r0=0.001 x0=0.001 Length=0.001 units=km
New Line.631269E:20296642 phases=3 Bus1=20296644.1.2.3 Bus2=20296645.1.2.3 switch=y r1=0.001 x1=0.001 r0=0.001 x0=0.001 Length=0.001 units=km
New Line.732168E:20296667 phases=3 Bus1=20296669.1.2.3 Bus2=20296670.1.2.3 switch=y r1=0.001 x1=0.001 r0=0.001 x0=0.001 Length=0.001 units=km
New Line.2041849E:20296942 phases=3 Bus1=20296944.1.2.3 Bus2=20296945.1.2.3 switch=y r1=0.001 x1=0.001 r0=0.001 x0=0.001 Length=0.001 units=km
New Line.1843039E:20297575 phases=3 Bus1=20297577.1.2.3 Bus2=20297578.1.2.3 switch=y r1=0.001 x1=0.001 r0=0.001 x0=0.001 Length=0.001 units=km
New Line.1843093E:200182979 phases=3 Bus1=200182981.1.2.3 Bus2=200182982.1.2.3 switch=y r1=0.001 x1=0.001 r0=0.001 x0=0.001 Length=0.001 units=km
New Line.2229994E:20296967 phases=3 Bus1=20296969.1.2.3 Bus2=20296970.1.2.3 switch=y r1=0.001 x1=0.001 r0=0.001 x0=0.001 Length=0.001 units=km
New Line.2305289E:20297017 phases=3 Bus1=20297019.1.2.3 Bus2=20297020.1.2.3 switch=y r1=0.001 x1=0.001 r0=0.001 x0=0.001 Length=0.001 units=km
New Line.1757697E:20297625 phases=3 Bus1=20297627.1.2.3 Bus2=20297628.1.2.3 switch=y r1=0.001 x1=0.001 r0=0.001 x0=0.001 Length=0.001 units=km
New Line.2344205E:20383876 phases=3 Bus1=20383878.1.2.3 Bus2=20383879.1.2.3 switch=y r1=0.001 x1=0.001 r0=0.001 x0=0.001 Length=0.001 units=km
New Line.449605E:15652573 phases=3 Bus1=15652575.1.2.3 Bus2=15652576.1.2.3 switch=y r1=0.001 x1=0.001 r0=0.001 x0=0.001 Length=0.001 units=km
New Line.1164840E:20337763 phases=2 Bus1=20337765.1.3 Bus2=20337766.1.3 switch=y r1=0.001 x1=0.001 r0=0.001 x0=0.001 Length=0.001 units=km
New Line.449078E:20296992 phases=3 Bus1=20296994.1.2.3 Bus2=20296995.1.2.3 switch=y r1=0.001 x1=0.001 r0=0.001 x0=0.001 Length=0.001 units=km
New Line.4498928E:20410245 phases=3 Bus1=20410247.1.2.3 Bus2=20410248.1.2.3 switch=y r1=0.001 x1=0.001 r0=0.001 x0=0.001 Length=0.001 units=km
New Line.1757694E:240054957 phases=3 Bus1=240054959.1.2.3 Bus2=240054960.1.2.3 switch=y r1=0.001 x1=0.001 r0=0.001 x0=0.001 Length=0.001 units=km
New Line.4601633E:96466355 phases=3 Bus1=96466357.1.2.3 Bus2=96466358.1.2.3 switch=y r1=0.001 x1=0.001 r0=0.001 x0=0.001 Length=0.001 units=km
New Line.4447947E:20296742 phases=3 Bus1=20296744.1.2.3 Bus2=20296745.1.2.3 switch=y r1=0.001 x1=0.001 r0=0.001 x0=0.001 Length=0.001 units=km
New Line.4701448E:20296792 phases=3 Bus1=20296794.1.2.3 Bus2=20296795.1.2.3 switch=y r1=0.001 x1=0.001 r0=0.001 x0=0.001 Length=0.001 units=km
New Line.1382681E:20297117 phases=3 Bus1=20297119.1.2.3 Bus2=20297120.1.2.3 switch=y r1=0.001 x1=0.001 r0=0.001 x0=0.001 Length=0.001 units=km
New Line.4099071E:20297600 phases=3 Bus1=20297602.1.2.3 Bus2=20297603.1.2.3 switch=y r1=0.001 x1=0.001 r0=0.001 x0=0.001 Length=0.001 units=km
New Line.1322713E:20296717 phases=3 Bus1=20296719.1.2.3 Bus2=20296720.1.2.3 switch=y r1=0.001 x1=0.001 r0=0.001 x0=0.001 Length=0.001 units=km
New Line.870927E:20296867 phases=3 Bus1=20296869.1.2.3 Bus2=20296870.1.2.3 switch=y r1=0.001 x1=0.001 r0=0.001 x0=0.001 Length=0.001 units=km
New Line.1382683E:20297142 phases=3 Bus1=20297144.1.2.3 Bus2=20297145.1.2.3 switch=y r1=0.001 x1=0.001 r0=0.001 x0=0.001 Length=0.001 units=km
New Line.546625E:20297729 phases=3 Bus1=20297731.1.2.3 Bus2=20297732.1.2.3 switch=y r1=0.001 x1=0.001 r0=0.001 x0=0.001 Length=0.001 units=km
New Line.1382686E:20297092 phases=3 Bus1=20297094.1.2.3 Bus2=20297095.1.2.3 switch=y r1=0.001 x1=0.001 r0=0.001 x0=0.001 Length=0.001 units=km
New Line.2124901E:20296842 phases=3 Bus1=20296844.1.2.3 Bus2=20296845.1.2.3 switch=y r1=0.001 x1=0.001 r0=0.001 x0=0.001 Length=0.001 units=km
New Line.1382688E:20297192 phases=3 Bus1=20297194.1.2.3 Bus2=20297195.1.2.3 switch=y r1=0.001 x1=0.001 r0=0.001 x0=0.001 Length=0.001 units=km
New Line.755424E:20319297 phases=3 Bus1=20319299.1.2.3 Bus2=20319300.1.2.3 switch=y r1=0.001 x1=0.001 r0=0.001 x0=0.001 Length=0.001 units=km
New Line.1382753E:20297704 phases=3 Bus1=20297706.1.2.3 Bus2=20297707.1.2.3 switch=y r1=0.001 x1=0.001 r0=0.001 x0=0.001 Length=0.001 units=km
New Line.1650482E:20297167 phases=3 Bus1=20297169.1.2.3 Bus2=20297170.1.2.3 switch=y r1=0.001 x1=0.001 r0=0.001 x0=0.001 Length=0.001 units=km
New Line.2287123E:20297242 phases=3 Bus1=20297244.1.2.3 Bus2=20297245.1.2.3 switch=y r1=0.001 x1=0.001 r0=0.001 x0=0.001 Length=0.001 units=km
New Line.500565E:20320017 phases=3 Bus1=20320019.1.2.3 Bus2=20320020.1.2.3 switch=y r1=0.001 x1=0.001 r0=0.001 x0=0.001 Length=0.001 units=km
New Line.2287126E:20297217 phases=3 Bus1=20297219.1.2.3 Bus2=20297220.1.2.3 switch=y r1=0.001 x1=0.001 r0=0.001 x0=0.001 Length=0.001 units=km
New Line.2229810E:20364902 phases=3 Bus1=20364904.1.2.3 Bus2=20364905.1.2.3 switch=y r1=0.001 x1=0.001 r0=0.001 x0=0.001 Length=0.001 units=km
New Line.502151E:20337813 phases=3 Bus1=20337815.1.2.3 Bus2=20337816.1.2.3 switch=y r1=0.001 x1=0.001 r0=0.001 x0=0.001 Length=0.001 units=km
New Line.371546E:20338071 phases=3 Bus1=20338073.1.2.3 Bus2=20338074.1.2.3 switch=y r1=0.001 x1=0.001 r0=0.001 x0=0.001 Length=0.001 units=km
New Line.4601601E:96384556 phases=3 Bus1=96384558.1.2.3 Bus2=96384559.1.2.3 switch=y r1=0.001 x1=0.001 r0=0.001 x0=0.001 Length=0.001 units=km
New Line.4600423E:96466132 phases=3 Bus1=96466134.1.2.3 Bus2=96466135.1.2.3 switch=y r1=0.001 x1=0.001 r0=0.001 x0=0.001 Length=0.001 units=km
New Line.1648150E:20320067 phases=3 Bus1=20320069.1.2.3 Bus2=20320070.1.2.3 switch=y r1=0.001 x1=0.001 r0=0.001 x0=0.001 Length=0.001 units=km
...